<?xml version="1.0" encoding="UTF-8"?>
<!DOCTYPE network SYSTEM "http://www.matsim.org/files/dtd/network_v2.dtd">
<network>

<!-- ====================================================================== -->

	<nodes>
		<node id="1" x="0.0" y="0.0" >
		</node>
		<node id="10" x="9000.0" y="0.0" >
		</node>
		<node id="11" x="10000.0" y="0.0" >
		</node>
		<node id="12" x="11000.0" y="0.0" >
		</node>
		<node id="2" x="1000.0" y="0.0" >
		</node>
		<node id="3" x="2000.0" y="0.0" >
		</node>
		<node id="4" x="3000.0" y="0.0" >
		</node>
		<node id="5" x="4000.0" y="0.0" >
		</node>
		<node id="6" x="5000.0" y="0.0" >
		</node>
		<node id="7" x="6000.0" y="0.0" >
		</node>
		<node id="8" x="7000.0" y="0.0" >
		</node>
		<node id="9" x="8000.0" y="0.0" >
		</node>
	</nodes>

<!-- ====================================================================== -->

	<links capperiod="01:00:00" effectivecellsize="7.5" effectivelanewidth="3.75">
		<link id="10_11" from="10" to="11" length="1000.0" freespeed="8.333333333333334" capacity="500.0" permlanes="1.0" oneway="1" modes="bus,car,drt,walk,bike" >
		</link>
		<link id="11_12" from="11" to="12" length="1000.0" freespeed="8.333333333333334" capacity="500.0" permlanes="1.0" oneway="1" modes="bus,car,drt,walk,bike" >
		</link>
		<link id="12_1" from="12" to="1" length="11000.0" freespeed="8.333333333333334" capacity="500.0" permlanes="1.0" oneway="1" modes="bus,car,drt,walk,bike" >
		</link>
		<link id="1_2" from="1" to="2" length="1000.0" freespeed="8.333333333333334" capacity="500.0" permlanes="1.0" oneway="1" modes="bus,car,drt,walk,bike" >
		</link>
		<link id="2_3" from="2" to="3" length="1000.0" freespeed="8.333333333333334" capacity="500.0" permlanes="1.0" oneway="1" modes="bus,car,drt,walk,bike" >
		</link>
		<link id="3_4" from="3" to="4" length="1000.0" freespeed="8.333333333333334" capacity="500.0" permlanes="1.0" oneway="1" modes="bus,car,drt,walk,bike" >
		</link>
		<link id="4_5" from="4" to="5" length="1000.0" freespeed="8.333333333333334" capacity="500.0" permlanes="1.0" oneway="1" modes="bus,car,drt,walk,bike" >
		</link>
		<link id="5_6" from="5" to="6" length="1000.0" freespeed="8.333333333333334" capacity="500.0" permlanes="1.0" oneway="1" modes="bus,car,drt,walk,bike" >
		</link>
		<link id="6_7" from="6" to="7" length="1000.0" freespeed="8.333333333333334" capacity="500.0" permlanes="1.0" oneway="1" modes="bus,car,drt,walk,bike" >
		</link>
		<link id="7_8" from="7" to="8" length="1000.0" freespeed="8.333333333333334" capacity="500.0" permlanes="1.0" oneway="1" modes="bus,car,drt,walk,bike" >
		</link>
		<link id="8_9" from="8" to="9" length="1000.0" freespeed="8.333333333333334" capacity="500.0" permlanes="1.0" oneway="1" modes="bus,car,drt,walk,bike" >
		</link>
		<link id="9_10" from="9" to="10" length="1000.0" freespeed="8.333333333333334" capacity="500.0" permlanes="1.0" oneway="1" modes="bus,car,drt,walk,bike" >
		</link>
	</links>

<!-- ====================================================================== -->

</network>
