<?xml version="1.0" encoding="utf-8"?>
<!DOCTYPE population SYSTEM "http://www.matsim.org/files/dtd/population_v6.dtd">

<population>



<!-- ====================================================================== -->

	<person id="1">
		<attributes>
			<attribute name="sex" class="java.lang.String">female</attribute>
		</attributes>
		<plan selected="yes">
			<activity type="home" x="0.0" y="0.0" end_time="07:00:00" >
			</activity>
			<leg mode="drt">
			</leg>
			<activity type="work" x="10000.0" y="0.0" >
			</activity>
		</plan>

	</person>

<!-- ====================================================================== -->

	<person id="10">
		<attributes>
			<attribute name="sex" class="java.lang.String">male</attribute>
		</attributes>
		<plan selected="yes">
			<activity type="home" x="9000.0" y="0.0" end_time="07:18:45" >
			</activity>
			<leg mode="drt">
			</leg>
			<activity type="work" x="10000.0" y="0.0" >
			</activity>
		</plan>

	</person>

<!-- ====================================================================== -->

	<person id="2">
		<attributes>
			<attribute name="sex" class="java.lang.String">male</attribute>
		</attributes>
		<plan selected="yes">
			<activity type="home" x="1000.0" y="0.0" end_time="07:02:05" >
			</activity>
			<leg mode="drt">
			</leg>
			<activity type="work" x="10000.0" y="0.0" >
			</activity>
		</plan>

	</person>

<!-- ====================================================================== -->

	<person id="3">
		<attributes>
			<attribute name="sex" class="java.lang.String">male</attribute>
		</attributes>
		<plan selected="yes">
			<activity type="home" x="2000.0" y="0.0" end_time="07:04:10" >
			</activity>
			<leg mode="drt">
			</leg>
			<activity type="work" x="10000.0" y="0.0" >
			</activity>
		</plan>

	</person>

<!-- ====================================================================== -->

	<person id="4">
		<attributes>
			<attribute name="sex" class="java.lang.String">female</attribute>
		</attributes>
		<plan selected="yes">
			<activity type="home" x="3000.0" y="0.0" end_time="07:06:15" >
			</activity>
			<leg mode="drt">
			</leg>
			<activity type="work" x="10000.0" y="0.0" >
			</activity>
		</plan>

	</person>

<!-- ====================================================================== -->

	<person id="5">
		<attributes>
			<attribute name="sex" class="java.lang.String">male</attribute>
		</attributes>
		<plan selected="yes">
			<activity type="home" x="4000.0" y="0.0" end_time="07:08:20" >
			</activity>
			<leg mode="drt">
			</leg>
			<activity type="work" x="10000.0" y="0.0" >
			</activity>
		</plan>

	</person>

<!-- ====================================================================== -->

	<person id="6">
		<attributes>
			<attribute name="sex" class="java.lang.String">female</attribute>
		</attributes>
		<plan selected="yes">
			<activity type="home" x="5000.0" y="0.0" end_time="07:10:25" >
			</activity>
			<leg mode="drt">
			</leg>
			<activity type="work" x="10000.0" y="0.0" >
			</activity>
		</plan>

	</person>

<!-- ====================================================================== -->

	<person id="7">
		<attributes>
			<attribute name="sex" class="java.lang.String">male</attribute>
		</attributes>
		<plan selected="yes">
			<activity type="home" x="6000.0" y="0.0" end_time="07:12:30" >
			</activity>
			<leg mode="drt">
			</leg>
			<activity type="work" x="10000.0" y="0.0" >
			</activity>
		</plan>

	</person>

<!-- ====================================================================== -->

	<person id="8">
		<attributes>
			<attribute name="sex" class="java.lang.String">female</attribute>
		</attributes>
		<plan selected="yes">
			<activity type="home" x="7000.0" y="0.0" end_time="07:14:35" >
			</activity>
			<leg mode="drt">
			</leg>
			<activity type="work" x="10000.0" y="0.0" >
			</activity>
		</plan>

	</person>

<!-- ====================================================================== -->

	<person id="9">
		<attributes>
			<attribute name="sex" class="java.lang.String">male</attribute>
		</attributes>
		<plan selected="yes">
			<activity type="home" x="8000.0" y="0.0" end_time="07:16:40" >
			</activity>
			<leg mode="drt">
			</leg>
			<activity type="work" x="10000.0" y="0.0" >
			</activity>
		</plan>

	</person>

<!-- ====================================================================== -->

</population>
