<?xml version="1.0" encoding="utf-8"?>
<!DOCTYPE population SYSTEM "http://www.matsim.org/files/dtd/population_v6.dtd">

<population>



<!-- ====================================================================== -->

	<person id="1">
		<attributes>
			<attribute name="sex" class="java.lang.String">male</attribute>
		</attributes>
		<plan selected="yes">
			<activity type="home" link="4_5" end_time="07:06:34" >
			</activity>
			<leg mode="drt">
			</leg>
			<activity type="work" link="6_7" >
			</activity>
		</plan>

	</person>

<!-- ====================================================================== -->

	<person id="10">
		<attributes>
			<attribute name="sex" class="java.lang.String">female</attribute>
		</attributes>
		<plan selected="yes">
			<activity type="home" link="4_5" end_time="07:06:04" >
			</activity>
			<leg mode="drt">
			</leg>
			<activity type="work" link="8_9" >
			</activity>
		</plan>

	</person>

<!-- ====================================================================== -->

	<person id="2">
		<attributes>
			<attribute name="sex" class="java.lang.String">male</attribute>
		</attributes>
		<plan selected="yes">
			<activity type="home" link="3_4" end_time="07:05:48" >
			</activity>
			<leg mode="drt">
			</leg>
			<activity type="work" link="4_5" >
			</activity>
		</plan>

	</person>

<!-- ====================================================================== -->

	<person id="3">
		<attributes>
			<attribute name="sex" class="java.lang.String">female</attribute>
		</attributes>
		<plan selected="yes">
			<activity type="home" link="5_6" end_time="07:09:37" >
			</activity>
			<leg mode="drt">
			</leg>
			<activity type="work" link="6_7" >
			</activity>
		</plan>

	</person>

<!-- ====================================================================== -->

	<person id="4">
		<attributes>
			<attribute name="sex" class="java.lang.String">male</attribute>
		</attributes>
		<plan selected="yes">
			<activity type="home" link="6_7" end_time="07:11:39" >
			</activity>
			<leg mode="drt">
			</leg>
			<activity type="work" link="7_8" >
			</activity>
		</plan>

	</person>

<!-- ====================================================================== -->

	<person id="5">
		<attributes>
			<attribute name="sex" class="java.lang.String">male</attribute>
		</attributes>
		<plan selected="yes">
			<activity type="home" link="6_7" end_time="07:11:13" >
			</activity>
			<leg mode="drt">
			</leg>
			<activity type="work" link="8_9" >
			</activity>
		</plan>

	</person>

<!-- ====================================================================== -->

	<person id="6">
		<attributes>
			<attribute name="sex" class="java.lang.String">male</attribute>
		</attributes>
		<plan selected="yes">
			<activity type="home" link="6_7" end_time="07:11:01" >
			</activity>
			<leg mode="drt">
			</leg>
			<activity type="work" link="8_9" >
			</activity>
		</plan>

	</person>

<!-- ====================================================================== -->

	<person id="7">
		<attributes>
			<attribute name="sex" class="java.lang.String">female</attribute>
		</attributes>
		<plan selected="yes">
			<activity type="home" link="6_7" end_time="07:11:00" >
			</activity>
			<leg mode="drt">
			</leg>
			<activity type="work" link="9_10" >
			</activity>
		</plan>

	</person>

<!-- ====================================================================== -->

	<person id="8">
		<attributes>
			<attribute name="sex" class="java.lang.String">female</attribute>
		</attributes>
		<plan selected="yes">
			<activity type="home" link="2_3" end_time="07:03:59" >
			</activity>
			<leg mode="drt">
			</leg>
			<activity type="work" link="5_6" >
			</activity>
		</plan>

	</person>

<!-- ====================================================================== -->

	<person id="9">
		<attributes>
			<attribute name="sex" class="java.lang.String">female</attribute>
		</attributes>
		<plan selected="yes">
			<activity type="home" link="2_3" end_time="07:02:32" >
			</activity>
			<leg mode="drt">
			</leg>
			<activity type="work" link="6_7" >
			</activity>
		</plan>

	</person>

<!-- ====================================================================== -->

</population>
